<NUMBER OF ZONES> 2
<TOTAL OD FLOW>   0.0
<END OF METADATA>

Origin         1
    3 :     0.0;    4 :     0.0;

Origin         3
    2 :     0.0;    4 :     0.0;
    
Origin         4
    2 :     0.0;