<NUMBER OF ZONES> 1
<TOTAL OD FLOW>   0.0
<END OF METADATA>

Origin         1
    2 :     0.0;    3 :     0.0;    4 :     0.0;

Origin         2
    3 :     0.0;

Origin         4
    3 :     0.0;