<NUMBER OF ZONES> 1
<NUMBER OF NODES> 3
<FIRST THRU NODE> 1
<NUMBER OF LINKS> 2
<ORIGINAL HEADER>~ 	Init node 	Term node 	Capacity 	Length 	Free Flow Time 	B	Power	Speed limit 	Toll 	Type	;
<END OF METADATA>


~	init_node	term_node	capacity	length	free_flow_time	b	power	speed	toll	link_type	;
	1	2	100	100	10	0.15	4	0	0	1
	1	4	100	100	10	0.15	4	0	0	1
	2	3	100	100	10	0.15	4	0	0	1
	4	3	100	100	10	0.15	4	0	0	1