<NUMBER OF ZONES> 3264					
<NUMBER OF NODES> 33113					
<FIRST THRU NODE> 3265					
<NUMBER OF LINKS> 75379
<ORIGINAL HEADER>~ 	Init node 	Term node 	Capacity 	Length 	Free Flow Time 	B	Power	Speed limit 	Toll 	Type	;
<END OF METADATA>					
					

~	init_node	term_node	capacity	length	free_flow_time	b	power	speed	critical_speed	lanes	;
	2863	8813	2880	0.09	0.23	0.25	4	24	0	2	;
	2864	8652	2880	0.187	0.47	0.25	4	24	0	2	;
	2865	25539	2880	0.05	0.13	0.25	4	24	0	2	;
	2866	5282	2880	0.239	0.60	0.25	4	24	0	2	;
	2867	8657	2880	0.212	0.53	0.25	4	24	0	2	;
	2868	23397	2880	0.198	0.50	0.25	4	24	0	2	;
	2869	5220	2880	0.066	0.17	0.25	4	24	0	2	;
	2870	29466	2880	0.398	1.00	0.25	4	24	0	2	;
	2871	5271	2880	0.313	0.78	0.25	4	24	0	2	;
	2872	23372	2880	0.183	0.46	0.25	4	24	0	2	;
	2873	29172	2880	0.219	0.55	0.25	4	24	0	2	;
	2873	29414	2880	0.184	0.46	0.25	4	24	0	2	;
	2874	5305	2880	0.134	0.34	0.25	4	24	0	2	;
	2875	23367	2880	0.085	0.21	0.25	4	24	0	2	;
	2875	23376	2880	0.056	0.14	0.25	4	24	0	2	;
	2876	16168	2880	0.306	0.77	0.25	4	24	0	2	;
	2877	14846	2880	0.174	0.44	0.25	4	24	0	2	;
	2877	14858	2880	0.495	1.24	0.25	4	24	0	2	;
	2878	14855	2880	0.124	0.31	0.25	4	24	0	2	;
	2879	14854	2880	0.197	0.49	0.25	4	24	0	2	;
	2879	28738	2880	0.168	0.42	0.25	4	24	0	2	;
	2880	27199	2880	0.178	0.45	0.25	4	24	0	2	;
	2881	30364	2880	0.243	0.61	0.25	4	24	0	2	;
	2882	16150	2880	0.216	0.54	0.25	4	24	0	2	;
	2883	16150	2880	0.093	0.23	0.25	4	24	0	2	;
	2884	29179	2880	0.176	0.44	0.25	4	24	0	2	;
	2885	4571	2880	7.33	18.33	0.25	4	24	0	2	;
	2886	33105	2880	1.392	3.48	0.25	4	24	0	2	;
	2886	33106	2880	0.26	0.65	0.25	4	24	0	2	;
	2887	26697	2880	0.307	0.77	0.25	4	24	0	2	;
	2888	23840	2880	1.992	4.98	0.25	4	24	0	2	;
	2889	29452	2880	0.369	0.92	0.25	4	24	0	2	;
	2890	6027	2880	0.404	1.01	0.25	4	24	0	2	;
	2891	29460	2880	0.485	1.21	0.25	4	24	0	2	;
	2892	24062	2880	0.27	0.68	0.25	4	24	0	2	;
	2893	5092	2880	1.041	2.60	0.25	4	24	0	2	;
	2894	24099	2880	0.423	1.06	0.25	4	24	0	2	;
	2895	24071	2880	0.348	0.87	0.25	4	24	0	2	;
	2895	24094	2880	0.351	0.88	0.25	4	24	0	2	;
	2896	24042	2880	0.231	0.58	0.25	4	24	0	2	;
	2897	24001	2880	0.551	1.38	0.25	4	24	0	2	;
	2898	24027	2880	0.205	0.51	0.25	4	24	0	2	;
	2899	24031	2880	0.406	1.02	0.25	4	24	0	2	;
	2900	23506	2880	1.153	2.88	0.25	4	24	0	2	;
	2901	24177	2880	0.192	0.48	0.25	4	24	0	2	;
	2902	26553	2880	0.18	0.45	0.25	4	24	0	2	;
	2903	5553	2880	0.092	0.23	0.25	4	24	0	2	;
	2904	30005	2880	0.077	0.19	0.25	4	24	0	2	;
	2905	24129	2880	0.111	0.28	0.25	4	24	0	2	;
	2905	24131	2880	0.24	0.60	0.25	4	24	0	2	;
	2906	23482	2880	1.167	2.92	0.25	4	24	0	2	;
	2907	4932	2880	0.366	0.92	0.25	4	24	0	2	;
	2908	23449	2880	0.117	0.29	0.25	4	24	0	2	;
	2908	23455	2880	0.109	0.27	0.25	4	24	0	2	;
	2909	23460	2880	0.254	0.64	0.25	4	24	0	2	;
	2910	23458	2880	0.248	0.62	0.25	4	24	0	2	;
	2911	23436	2880	0.138	0.35	0.25	4	24	0	2	;
	2912	23428	2880	0.111	0.28	0.25	4	24	0	2	;
	2913	27473	2880	0.231	0.58	0.25	4	24	0	2	;
	2913	29381	2880	0.103	0.26	0.25	4	24	0	2	;
	2914	26570	2880	0.363	0.91	0.25	4	24	0	2	;
	2915	29386	2880	0.187	0.47	0.25	4	24	0	2	;
	2916	25498	2880	0.606	1.52	0.25	4	24	0	2	;
	2916	26572	2880	0.171	0.43	0.25	4	24	0	2	;
	2917	25503	2880	0.147	0.37	0.25	4	24	0	2	;
	2918	25522	2880	0.177	0.44	0.25	4	24	0	2	;
	2919	25566	2880	0.15	0.38	0.25	4	24	0	2	;
	2920	29455	2880	0.16	0.40	0.25	4	24	0	2	;
	2921	16212	2880	0.331	0.83	0.25	4	24	0	2	;
	2922	25589	2880	0.317	0.79	0.25	4	24	0	2	;
	2922	29456	2880	0.311	0.78	0.25	4	24	0	2	;
	2923	16190	2880	0.494	1.24	0.25	4	24	0	2	;
	2924	4914	2880	0.372	0.93	0.25	4	24	0	2	;
	2925	16275	2880	0.076	0.19	0.25	4	24	0	2	;
	2926	29420	2880	0.243	0.61	0.25	4	24	0	2	;
	2927	16292	2880	0.334	0.84	0.25	4	24	0	2	;
	2928	16152	2880	0.212	0.53	0.25	4	24	0	2	;
	2929	16242	2880	0.355	0.89	0.25	4	24	0	2	;
	2929	16248	2880	0.347	0.87	0.25	4	24	0	2	;
	2930	16107	2880	0.099	0.25	0.25	4	24	0	2	;
	2931	16244	2880	0.414	1.04	0.25	4	24	0	2	;
	2932	4666	2880	0.536	1.34	0.25	4	24	0	2	;
	2933	16257	2880	0.441	1.10	0.25	4	24	0	2	;
	2934	16320	2880	0.362	0.91	0.25	4	24	0	2	;
	2934	29096	2880	0.308	0.77	0.25	4	24	0	2	;
	2935	23582	2880	0.171	0.43	0.25	4	24	0	2	;
	2935	29449	2880	0.165	0.41	0.25	4	24	0	2	;
	2936	29097	2880	0.396	0.99	0.25	4	24	0	2	;
	2937	23592	2880	0.113	0.28	0.25	4	24	0	2	;
	2938	29382	2880	0.457	1.14	0.25	4	24	0	2	;
	2939	23650	2880	0.553	1.38	0.25	4	24	0	2	;
	2940	23609	2880	0.373	0.93	0.25	4	24	0	2	;
	2940	29160	2880	0.321	0.80	0.25	4	24	0	2	;
	2941	8522	2880	0.395	0.99	0.25	4	24	0	2	;
	2942	4349	2880	0.842	2.11	0.25	4	24	0	2	;
	2943	23703	2880	0.136	0.34	0.25	4	24	0	2	;
	2944	8521	2880	0.096	0.24	0.25	4	24	0	2	;
	2945	23724	2880	0.128	0.32	0.25	4	24	0	2	;
	2945	30338	2880	0.111	0.28	0.25	4	24	0	2	;
	2946	31500	2880	0.144	0.36	0.25	4	24	0	2	;
	2947	23677	2880	0.31	0.78	0.25	4	24	0	2	;
	2948	4525	2880	0.272	0.68	0.25	4	24	0	2	;
	2949	23711	2880	0.283	0.71	0.25	4	24	0	2	;
	2950	4740	2880	0.172	0.43	0.25	4	24	0	2	;
	2951	31537	2880	0.176	0.44	0.25	4	24	0	2	;
	2952	23675	2880	0.266	0.67	0.25	4	24	0	2	;
	2953	23756	2880	0.369	0.92	0.25	4	24	0	2	;
	2954	17573	2880	0.179	0.45	0.25	4	24	0	2	;
	2954	17579	2880	0.178	0.45	0.25	4	24	0	2	;
	2955	8529	2880	0.202	0.51	0.25	4	24	0	2	;
	2956	17568	2880	0.348	0.87	0.25	4	24	0	2	;
	2957	23718	2880	0.361	0.90	0.25	4	24	0	2	;
	2958	25622	2880	0.397	0.99	0.25	4	24	0	2	;
	2959	23763	2880	0.103	0.26	0.25	4	24	0	2	;
	2960	31515	2880	0.162	0.41	0.25	4	24	0	2	;
	2961	17518	2880	0.296	0.74	0.25	4	24	0	2	;
	2962	29427	2880	0.314	0.79	0.25	4	24	0	2	;
	2963	8398	2880	0.438	1.10	0.25	4	24	0	2	;
	2964	29457	2880	0.223	0.56	0.25	4	24	0	2	;
	2965	17503	2880	0.149	0.37	0.25	4	24	0	2	;
	2966	8634	2880	0.386	0.97	0.25	4	24	0	2	;
	2966	29458	2880	0.365	0.91	0.25	4	24	0	2	;
	2967	27992	2880	0.152	0.38	0.25	4	24	0	2	;
	2968	29385	2880	0.179	0.45	0.25	4	24	0	2	;
	2969	17483	2880	0.038	0.10	0.25	4	24	0	2	;
	2970	30016	2880	0.078	0.20	0.25	4	24	0	2	;
	2971	4728	2880	0.203	0.51	0.25	4	24	0	2	;
	2972	17587	2880	0.466	1.17	0.25	4	24	0	2	;
	2972	17592	2880	0.388	0.97	0.25	4	24	0	2	;
	2973	17605	2880	0.09	0.23	0.25	4	24	0	2	;
	2974	4494	2880	0.264	0.66	0.25	4	24	0	2	;
	2974	17466	2880	0.198	0.50	0.25	4	24	0	2	;
	2975	17462	2880	0.302	0.76	0.25	4	24	0	2	;
	2976	29129	2880	5.774	14.44	0.25	4	24	0	2	;
	2976	29155	2880	6.499	16.25	0.25	4	24	0	2	;
	2977	20976	2880	1.561	3.90	0.25	4	24	0	2	;
	2978	23813	2880	1.335	3.34	0.25	4	24	0	2	;
	2979	29153	2880	0.434	1.09	0.25	4	24	0	2	;
	2980	20988	2880	0.759	1.90	0.25	4	24	0	2	;
	2980	29140	2880	0.663	1.66	0.25	4	24	0	2	;
	2981	20993	2880	1.605	4.01	0.25	4	24	0	2	;
	2982	25441	2880	0.846	2.12	0.25	4	24	0	2	;
	2983	25401	2880	1.317	3.29	0.25	4	24	0	2	;
	2984	25438	2880	0.607	1.52	0.25	4	24	0	2	;
	2985	4176	2880	1.086	2.72	0.25	4	24	0	2	;
	2986	25449	2880	1.173	2.93	0.25	4	24	0	2	;
	2987	4085	2880	0.508	1.27	0.25	4	24	0	2	;
	2988	4157	2880	0.631	1.58	0.25	4	24	0	2	;
	2989	20805	2880	0.215	0.54	0.25	4	24	0	2	;
	2990	4747	2880	0.882	2.21	0.25	4	24	0	2	;
	2991	25444	2880	0.595	1.49	0.25	4	24	0	2	;
	2992	23627	2880	0.508	1.27	0.25	4	24	0	2	;
	2993	20814	2880	0.268	0.67	0.25	4	24	0	2	;
	2994	20788	2880	0.073	0.18	0.25	4	24	0	2	;
	2995	20808	2880	0.113	0.28	0.25	4	24	0	2	;
	2996	4879	2880	0.739	1.85	0.25	4	24	0	2	;
	2997	4241	2880	0.835	2.09	0.25	4	24	0	2	;
	2997	31477	2880	0.606	1.52	0.25	4	24	0	2	;
	2998	25458	2880	0.298	0.75	0.25	4	24	0	2	;
	2999	23706	2880	0.125	0.31	0.25	4	24	0	2	;
	3000	23611	2880	0.287	0.72	0.25	4	24	0	2	;
	3001	29147	2880	0.198	0.50	0.25	4	24	0	2	;
	3002	29377	2880	0.397	0.99	0.25	4	24	0	2	;
	3003	4759	2880	0.474	1.19	0.25	4	24	0	2	;
	3004	29378	2880	0.344	0.86	0.25	4	24	0	2	;
	3005	29451	2880	0.456	1.14	0.25	4	24	0	2	;
	3006	23669	2880	0.224	0.56	0.25	4	24	0	2	;
	3007	4496	2880	0.629	1.57	0.25	4	24	0	2	;
	3007	23666	2880	0.601	1.50	0.25	4	24	0	2	;
	3008	23654	2880	0.276	0.69	0.25	4	24	0	2	;
	3009	23543	2880	0.262	0.66	0.25	4	24	0	2	;
	3010	4458	2880	0.269	0.67	0.25	4	24	0	2	;
	3011	4467	2880	0.177	0.44	0.25	4	24	0	2	;
	3012	29148	2880	0.434	1.09	0.25	4	24	0	2	;
	3013	24241	2880	0.373	0.93	0.25	4	24	0	2	;
	3014	29029	2880	0.087	0.22	0.25	4	24	0	2	;
	3015	7389	2880	0.273	0.68	0.25	4	24	0	2	;
	3016	7451	2880	0.209	0.52	0.25	4	24	0	2	;
	3017	7429	2880	0.156	0.39	0.25	4	24	0	2	;
	3018	24459	2880	0.165	0.41	0.25	4	24	0	2	;
	3019	7498	2880	0.113	0.28	0.25	4	24	0	2	;
	3019	28213	2880	0.08	0.20	0.25	4	24	0	2	;
	3020	7289	2880	0.32	0.80	0.25	4	24	0	2	;
	3021	7392	2880	0.243	0.61	0.25	4	24	0	2	;
	3022	28210	2880	0.166	0.42	0.25	4	24	0	2	;
	3023	7536	2880	0.125	0.31	0.25	4	24	0	2	;
	3024	7369	2880	0.245	0.61	0.25	4	24	0	2	;
	3025	24944	2880	0.244	0.61	0.25	4	24	0	2	;
	3026	24994	2880	0.287	0.72	0.25	4	24	0	2	;
	3027	7582	2880	0.761	1.90	0.25	4	24	0	2	;
	3028	7195	2880	1.767	4.42	0.25	4	24	0	2	;
	3029	25056	2880	0.718	1.80	0.25	4	24	0	2	;
	3030	25066	2880	0.435	1.09	0.25	4	24	0	2	;
	3031	25082	2880	0.222	0.56	0.25	4	24	0	2	;
	3032	25103	2880	0.542	1.36	0.25	4	24	0	2	;
	3033	24818	2880	0.374	0.94	0.25	4	24	0	2	;
	3034	29454	2880	0.363	0.91	0.25	4	24	0	2	;
	3035	24858	2880	0.202	0.51	0.25	4	24	0	2	;
	3036	24901	2880	0.222	0.56	0.25	4	24	0	2	;
	3037	24572	2880	0.284	0.71	0.25	4	24	0	2	;
	3038	24568	2880	0.057	0.14	0.25	4	24	0	2	;
	3039	7296	2880	0.423	1.06	0.25	4	24	0	2	;
	3040	29483	2880	0.285	0.71	0.25	4	24	0	2	;
	3041	24556	2880	0.187	0.47	0.25	4	24	0	2	;
	3041	24566	2880	0.165	0.41	0.25	4	24	0	2	;
	3042	25122	2880	0.24	0.60	0.25	4	24	0	2	;
	3043	7580	2880	0.344	0.86	0.25	4	24	0	2	;
	3044	7019	2880	0.543	1.36	0.25	4	24	0	2	;
	3045	25138	2880	0.078	0.20	0.25	4	24	0	2	;
	3046	25114	2880	0.234	0.59	0.25	4	24	0	2	;
	3047	24303	2880	0.333	0.83	0.25	4	24	0	2	;
	3048	24523	2880	0.154	0.39	0.25	4	24	0	2	;
	3049	24882	2880	0.183	0.46	0.25	4	24	0	2	;
	3050	25180	2880	0.143	0.36	0.25	4	24	0	2	;
	3051	24315	2880	0.539	1.35	0.25	4	24	0	2	;
	3052	24496	2880	0.308	0.77	0.25	4	24	0	2	;
	3053	24440	2880	0.231	0.58	0.25	4	24	0	2	;
	3054	24217	2880	0.277	0.69	0.25	4	24	0	2	;
	3055	24310	2880	0.398	1.00	0.25	4	24	0	2	;
	3056	27607	2880	0.327	0.82	0.25	4	24	0	2	;
	3057	7549	2880	0.126	0.32	0.25	4	24	0	2	;
	3058	25362	2880	0.585	1.46	0.25	4	24	0	2	;
	3059	29509	2880	0.377	0.94	0.25	4	24	0	2	;
	3060	7419	2880	0.244	0.61	0.25	4	24	0	2	;
	3061	24419	2880	0.244	0.61	0.25	4	24	0	2	;
	3062	24400	2880	0.22	0.55	0.25	4	24	0	2	;
	3063	28259	2880	0.557	1.39	0.25	4	24	0	2	;
	3064	27627	2880	0.238	0.60	0.25	4	24	0	2	;
	3065	7579	2880	0.19	0.48	0.25	4	24	0	2	;
	3066	25339	2880	0.321	0.80	0.25	4	24	0	2	;
	3067	24223	2880	0.254	0.64	0.25	4	24	0	2	;
	3068	27611	2880	0.124	0.31	0.25	4	24	0	2	;
	3069	29484	2880	0.205	0.51	0.25	4	24	0	2	;
	3069	29485	2880	0.26	0.65	0.25	4	24	0	2	;
	3069	29508	2880	0.182	0.46	0.25	4	24	0	2	;
	3070	24297	2880	0.354	0.89	0.25	4	24	0	2	;
	3071	27622	2880	0.416	1.04	0.25	4	24	0	2	;
	3072	24389	2880	0.163	0.41	0.25	4	24	0	2	;
	3072	29503	2880	0.161	0.40	0.25	4	24	0	2	;
	3073	24381	2880	0.31	0.78	0.25	4	24	0	2	;
	3073	29504	2880	0.194	0.49	0.25	4	24	0	2	;
	3074	7032	2880	0.314	0.79	0.25	4	24	0	2	;
	3075	24379	2880	0.245	0.61	0.25	4	24	0	2	;
	3076	30078	2880	0.125	0.31	0.25	4	24	0	2	;
	3077	30015	2880	0.105	0.26	0.25	4	24	0	2	;
	3078	24323	2880	0.238	0.60	0.25	4	24	0	2	;
	3079	24248	2880	0.217	0.54	0.25	4	24	0	2	;
	3080	24267	2880	0.306	0.77	0.25	4	24	0	2	;
	3081	24413	2880	0.237	0.59	0.25	4	24	0	2	;
	3082	24579	2880	0.315	0.79	0.25	4	24	0	2	;
	3082	24582	2880	0.262	0.66	0.25	4	24	0	2	;
	3083	7395	2880	0.915	2.29	0.25	4	24	0	2	;
	3084	24619	2880	0.366	0.92	0.25	4	24	0	2	;
	3085	24606	2880	0.439	1.10	0.25	4	24	0	2	;
	3086	28322	2880	0.355	0.89	0.25	4	24	0	2	;
	3087	7533	2880	0.82	2.05	0.25	4	24	0	2	;
	3087	33081	2880	0.415	1.04	0.25	4	24	0	2	;
	3087	33082	2880	0.462	1.16	0.25	4	24	0	2	;
	3087	33083	2880	0.452	1.13	0.25	4	24	0	2	;
	3087	33084	2880	0.466	1.17	0.25	4	24	0	2	;
	3088	24669	2880	0.235	0.59	0.25	4	24	0	2	;
	3089	24664	2880	0.356	0.89	0.25	4	24	0	2	;
	3090	29488	2880	0.377	0.94	0.25	4	24	0	2	;
	3091	24672	2880	0.332	0.83	0.25	4	24	0	2	;
	3092	24705	2880	0.368	0.92	0.25	4	24	0	2	;
	3092	24714	2880	0.266	0.67	0.25	4	24	0	2	;
	3093	7643	2880	0.265	0.66	0.25	4	24	0	2	;
	3094	24688	2880	0.489	1.22	0.25	4	24	0	2	;
	3095	29491	2880	0.252	0.63	0.25	4	24	0	2	;
	3096	29506	2880	0.136	0.34	0.25	4	24	0	2	;
	3097	24720	2880	0.137	0.34	0.25	4	24	0	2	;
	3098	8874	2880	0.709	1.77	0.25	4	24	0	2	;
	3099	24742	2880	0.139	0.35	0.25	4	24	0	2	;
	3100	29505	2880	0.251	0.63	0.25	4	24	0	2	;
	3101	24767	2880	0.169	0.42	0.25	4	24	0	2	;
	3102	7570	2880	0.409	1.02	0.25	4	24	0	2	;
	3103	24794	2880	0.127	0.32	0.25	4	24	0	2	;
	3104	24777	2880	0.365	0.91	0.25	4	24	0	2	;
	3105	7545	2880	0.163	0.41	0.25	4	24	0	2	;
	3105	8881	2880	0.485	1.21	0.25	4	24	0	2	;
	3106	8881	2880	0.397	0.99	0.25	4	24	0	2	;
	3106	8883	2880	0.368	0.92	0.25	4	24	0	2	;
	3107	24791	2880	0.17	0.43	0.25	4	24	0	2	;
	3108	7610	2880	0.259	0.65	0.25	4	24	0	2	;
	3109	24829	2880	0.175	0.44	0.25	4	24	0	2	;
	3110	24837	2880	0.232	0.58	0.25	4	24	0	2	;
	3111	21716	2880	0.291	0.73	0.25	4	24	0	2	;
	3112	21740	2880	0.457	1.14	0.25	4	24	0	2	;
	3112	21741	2880	0.446	1.12	0.25	4	24	0	2	;
	3113	21781	2880	0.432	1.08	0.25	4	24	0	2	;
	3114	21789	2880	0.158	0.40	0.25	4	24	0	2	;
	3115	28757	2880	0.763	1.91	0.25	4	24	0	2	;
	3116	21750	2880	0.313	0.78	0.25	4	24	0	2	;
	3117	21639	2880	0.365	0.91	0.25	4	24	0	2	;
	3117	26780	2880	0.438	1.10	0.25	4	24	0	2	;
	3118	7715	2880	0.213	0.53	0.25	4	24	0	2	;
	3119	26775	2880	0.094	0.24	0.25	4	24	0	2	;
	3119	30342	2880	0.151	0.38	0.25	4	24	0	2	;
	3120	21727	2880	0.334	0.84	0.25	4	24	0	2	;
	3121	8545	2880	0.29	0.73	0.25	4	24	0	2	;
	3122	21637	2880	0.456	1.14	0.25	4	24	0	2	;
	3123	29490	2880	0.295	0.74	0.25	4	24	0	2	;
	3124	7782	2880	0.379	0.95	0.25	4	24	0	2	;
	3124	28462	2880	0.287	0.72	0.25	4	24	0	2	;
	3125	21586	2880	0.21	0.53	0.25	4	24	0	2	;
	3126	21470	2880	0.24	0.60	0.25	4	24	0	2	;
	3127	21502	2880	0.307	0.77	0.25	4	24	0	2	;
	3128	21477	2880	0.34	0.85	0.25	4	24	0	2	;
	3129	29493	2880	0.336	0.84	0.25	4	24	0	2	;
	3130	21522	2880	0.683	1.71	0.25	4	24	0	2	;
	3130	28794	2880	0.692	1.73	0.25	4	24	0	2	;
	3131	21483	2880	0.319	0.80	0.25	4	24	0	2	;
	3132	21456	2880	0.339	0.85	0.25	4	24	0	2	;
	3133	29494	2880	0.333	0.83	0.25	4	24	0	2	;
	3134	21368	2880	0.134	0.34	0.25	4	24	0	2	;
	3135	21558	2880	0.263	0.66	0.25	4	24	0	2	;
	3136	21402	2880	0.339	0.85	0.25	4	24	0	2	;
	3137	21328	2880	0.36	0.90	0.25	4	24	0	2	;
	3138	21324	2880	0.348	0.87	0.25	4	24	0	2	;
	3139	19338	2880	6.959	17.40	0.25	4	24	0	2	;
	3140	7091	2880	2.475	6.19	0.25	4	24	0	2	;
	3141	21905	2880	0.184	0.46	0.25	4	24	0	2	;
	3142	21917	2880	0.562	1.41	0.25	4	24	0	2	;
	3143	19350	2880	1.256	3.14	0.25	4	24	0	2	;
	3144	21918	2880	0.195	0.49	0.25	4	24	0	2	;
	3145	21883	2880	0.354	0.89	0.25	4	24	0	2	;
	3146	21925	2880	0.469	1.17	0.25	4	24	0	2	;
	3147	21939	2880	0.883	2.21	0.25	4	24	0	2	;
	3148	19333	2880	5.592	13.98	0.25	4	24	0	2	;
	3149	21900	2880	0.178	0.45	0.25	4	24	0	2	;
	3150	21871	2880	0.773	1.93	0.25	4	24	0	2	;
	3151	29481	2880	0.279	0.70	0.25	4	24	0	2	;
	3152	21814	2880	0.289	0.72	0.25	4	24	0	2	;
	3153	21826	2880	0.307	0.77	0.25	4	24	0	2	;
	3154	28428	2880	0.213	0.53	0.25	4	24	0	2	;
	3155	7090	2880	0.471	1.18	0.25	4	24	0	2	;
	3156	8413	2880	0.518	1.30	0.25	4	24	0	2	;
	3157	21894	2880	0.387	0.97	0.25	4	24	0	2	;
	3158	28427	2880	0.3	0.75	0.25	4	24	0	2	;
	3159	7680	2880	0.147	0.37	0.25	4	24	0	2	;
	3160	21682	2880	0.63	1.58	0.25	4	24	0	2	;
	3161	21665	2880	0.403	1.01	0.25	4	24	0	2	;
	3162	29486	2880	0.299	0.75	0.25	4	24	0	2	;
	3163	22685	2880	0.256	0.64	0.25	4	24	0	2	;
	3164	7693	2880	0.277	0.69	0.25	4	24	0	2	;
	3165	22695	2880	0.103	0.26	0.25	4	24	0	2	;
	3166	29487	2880	1.211	3.03	0.25	4	24	0	2	;
	3167	6502	2880	1.509	3.77	0.25	4	24	0	2	;
	3168	21390	2880	0.275	0.69	0.25	4	24	0	2	;
	3169	7656	2880	0.281	0.70	0.25	4	24	0	2	;
	3169	21371	2880	0.407	1.02	0.25	4	24	0	2	;
	3170	30341	2880	0.175	0.44	0.25	4	24	0	2	;
	3171	21381	2880	0.067	0.17	0.25	4	24	0	2	;
	3172	21296	2880	0.176	0.44	0.25	4	24	0	2	;
	3172	21316	2880	0.523	1.31	0.25	4	24	0	2	;
	3173	21287	2880	0.179	0.45	0.25	4	24	0	2	;
	3174	21281	2880	0.521	1.30	0.25	4	24	0	2	;
	3174	29492	2880	0.451	1.13	0.25	4	24	0	2	;
	3175	21193	2880	0.248	0.62	0.25	4	24	0	2	;
	3175	21317	2880	0.184	0.46	0.25	4	24	0	2	;
	3176	21181	2880	0.337	0.84	0.25	4	24	0	2	;
	3177	21124	2880	0.326	0.82	0.25	4	24	0	2	;
	3178	21235	2880	0.233	0.58	0.25	4	24	0	2	;
	3179	21251	2880	0.424	1.06	0.25	4	24	0	2	;
	3179	21268	2880	0.429	1.07	0.25	4	24	0	2	;
	3180	21190	2880	0.235	0.59	0.25	4	24	0	2	;
	3181	21164	2880	0.274	0.69	0.25	4	24	0	2	;
	3181	21173	2880	0.134	0.34	0.25	4	24	0	2	;
	3182	21225	2880	0.128	0.32	0.25	4	24	0	2	;
	3183	7507	2880	4.075	10.19	0.25	4	24	0	2	;
	3184	31138	2880	1.129	2.82	0.25	4	24	0	2	;
	3185	22658	2880	0.266	0.67	0.25	4	24	0	2	;
	3186	7755	2880	0.191	0.48	0.25	4	24	0	2	;
	3187	22640	2880	0.189	0.47	0.25	4	24	0	2	;
	3188	22270	2880	0.382	0.96	0.25	4	24	0	2	;
	3189	22244	2880	0.346	0.87	0.25	4	24	0	2	;
	3190	22261	2880	0.229	0.57	0.25	4	24	0	2	;
	3191	22674	2880	5.473	13.68	0.25	4	24	0	2	;
	3192	22104	2880	0.261	0.65	0.25	4	24	0	2	;
	3193	22252	2880	0.25	0.63	0.25	4	24	0	2	;
	3194	28436	2880	0.129	0.32	0.25	4	24	0	2	;
	3195	7752	2880	0.327	0.82	0.25	4	24	0	2	;
	3196	29489	2880	0.511	1.28	0.25	4	24	0	2	;
	3197	22205	2880	0.139	0.35	0.25	4	24	0	2	;
	3198	22188	2880	0.195	0.49	0.25	4	24	0	2	;
	3199	21967	2880	1.619	4.05	0.25	4	24	0	2	;
	3199	22226	2880	0.964	2.41	0.25	4	24	0	2	;
	3200	22118	2880	0.264	0.66	0.25	4	24	0	2	;
	3201	22162	2880	0.51	1.28	0.25	4	24	0	2	;
	3202	21966	2880	0.613	1.53	0.25	4	24	0	2	;
	3203	22098	2880	0.367	0.92	0.25	4	24	0	2	;
	3203	22120	2880	0.414	1.04	0.25	4	24	0	2	;
	3204	22086	2880	0.288	0.72	0.25	4	24	0	2	;
	3205	21949	2880	0.468	1.17	0.25	4	24	0	2	;
	3206	22149	2880	0.458	1.15	0.25	4	24	0	2	;
	3206	29498	2880	0.355	0.89	0.25	4	24	0	2	;
	3207	22059	2880	0.488	1.22	0.25	4	24	0	2	;
	3208	29497	2880	0.258	0.65	0.25	4	24	0	2	;
	3209	29496	2880	0.432	1.08	0.25	4	24	0	2	;
	3210	28051	2880	0.17	0.43	0.25	4	24	0	2	;
	3210	30219	2880	0.123	0.31	0.25	4	24	0	2	;
	3211	22030	2880	0.117	0.29	0.25	4	24	0	2	;
	3212	22044	2880	0.299	0.75	0.25	4	24	0	2	;
	3213	22015	2880	0.379	0.95	0.25	4	24	0	2	;
	3214	21980	2880	0.231	0.58	0.25	4	24	0	2	;
	3215	21990	2880	0.209	0.52	0.25	4	24	0	2	;
	3216	31170	2880	1.015	2.54	0.25	4	24	0	2	;
	3216	31182	2880	0.655	1.64	0.25	4	24	0	2	;
	3217	31217	2880	0.26	0.65	0.25	4	24	0	2	;
	3218	31157	2880	0.737	1.84	0.25	4	24	0	2	;
	3218	31209	2880	0.184	0.46	0.25	4	24	0	2	;
	3219	31206	2880	0.117	0.29	0.25	4	24	0	2	;
	3220	22627	2880	0.266	0.67	0.25	4	24	0	2	;
	3221	22584	2880	0.455	1.14	0.25	4	24	0	2	;
	3222	22672	2880	1.12	2.80	0.25	4	24	0	2	;
	3223	22488	2880	1.409	3.52	0.25	4	24	0	2	;
	3224	22492	2880	0.362	0.91	0.25	4	24	0	2	;
	3225	28444	2880	1.818	4.55	0.25	4	24	0	2	;
	3226	22574	2880	0.955	2.39	0.25	4	24	0	2	;
	3227	22436	2880	0.228	0.57	0.25	4	24	0	2	;
	3228	22462	2880	0.443	1.11	0.25	4	24	0	2	;
	3228	29499	2880	0.375	0.94	0.25	4	24	0	2	;
	3229	7810	2880	0.39	0.98	0.25	4	24	0	2	;
	3230	22429	2880	0.273	0.68	0.25	4	24	0	2	;
	3231	22544	2880	1.176	2.94	0.25	4	24	0	2	;
	3232	28443	2880	1.721	4.30	0.25	4	24	0	2	;
	3232	31140	2880	0.64	1.60	0.25	4	24	0	2	;
	3233	22535	2880	0.605	1.51	0.25	4	24	0	2	;
	3233	22582	2880	0.292	0.73	0.25	4	24	0	2	;
	3234	22502	2880	0.141	0.35	0.25	4	24	0	2	;
	3235	28054	2880	0.087	0.22	0.25	4	24	0	2	;
	3236	22501	2880	0.173	0.43	0.25	4	24	0	2	;
	3237	22350	2880	0.278	0.70	0.25	4	24	0	2	;
	3238	22548	2880	0.442	1.11	0.25	4	24	0	2	;
	3239	22528	2880	0.569	1.42	0.25	4	24	0	2	;
	3240	28242	2880	0.525	1.31	0.25	4	24	0	2	;
	3241	22428	2880	0.361	0.90	0.25	4	24	0	2	;
	3242	7797	2880	0.612	1.53	0.25	4	24	0	2	;
	3242	22277	2880	0.498	1.25	0.25	4	24	0	2	;
	3243	22307	2880	0.41	1.03	0.25	4	24	0	2	;
	3244	22386	2880	0.306	0.77	0.25	4	24	0	2	;
	3245	22415	2880	0.333	0.83	0.25	4	24	0	2	;
	3246	7921	2880	0.274	0.69	0.25	4	24	0	2	;
	3247	7919	2880	0.224	0.56	0.25	4	24	0	2	;
	3248	24927	2880	0.141	0.35	0.25	4	24	0	2	;
	3248	31543	2880	0.147	0.37	0.25	4	24	0	2	;
	3248	31544	2880	0.04	0.10	0.25	4	24	0	2	;
	3249	6885	2880	0.068	0.17	0.25	4	24	0	2	;
	3249	31540	2880	0.064	0.16	0.25	4	24	0	2	;
	3249	31541	2880	0.083	0.21	0.25	4	24	0	2	;
	3250	31460	2880	0.04	0.10	0.25	4	24	0	2	;
	3251	7834	2880	3.37	8.43	0.25	4	24	0	2	;
	3252	7826	2880	2.583	6.46	0.25	4	24	0	2	;
	3253	7822	2880	2.4	6.00	0.25	4	24	0	2	;
	3254	7778	2880	3.113	7.78	0.25	4	24	0	2	;
	3255	7787	2880	2.095	5.24	0.25	4	24	0	2	;
	3256	5886	2880	2.489	6.22	0.25	4	24	0	2	;
	3257	3294	2880	2.294	5.74	0.25	4	24	0	2	;
	3258	3292	2880	2.472	6.18	0.25	4	24	0	2	;
	3259	3348	2880	3.94	9.85	0.25	4	24	0	2	;
	3260	3350	2880	3.284	8.21	0.25	4	24	0	2	;
	3261	3364	2880	2.963	7.41	0.25	4	24	0	2	;
	3262	3604	2880	3.149	7.87	0.25	4	24	0	2	;
	3263	4006	2880	3.557	8.89	0.25	4	24	0	2	;
	3264	4637	2880	2.864	7.16	0.25	4	24	0	2	;