<NUMBER OF ZONES> 1
<NUMBER OF NODES> 6
<FIRST THRU NODE> 1
<NUMBER OF LINKS> 5
<ORIGINAL HEADER> init_node	term_node	capacity	length	free_flow_time	b	power	speed	toll	link_type
<END OF METADATA>

1	2	10	100	10	0.15	4	0	0	1
2	5	10	100	10	0.15	4	0	0	1
3	4	10	100	10	0.15	4	0	0	1
4	5	10	100	10	0.15	4	0	0	1
5	6	20	100	10	0.15	4	0	0	1
