<NUMBER OF ZONES> 1
<TOTAL OD FLOW>   20.0
<END OF METADATA>

Origin  1
    2 :     0.0;    5 :     0.0;    6 :     0.0;

Origin  2
    5 :     0.0;    6 :     0.0;

Origin  3
    4 :     0.0;    5 :     0.0;    6 :     0.0;

Origin  4
    5 :     0.0;    6 :     0.0;

Origin  5
    6 :     0.0;